cgmes-gl/cgmes-gl-iidm-extensions/src/test/resources/network.xml
<?xml version="1.0" encoding="UTF-8"?>
<iidm:network xmlns:iidm="http://www.itesla_project.eu/schema/iidm/1_0" xmlns:lp="http://www.itesla_project.eu/schema/iidm/ext/line_position/1_0" xmlns:sp="http://www.itesla_project.eu/schema/iidm/ext/substation_position/1_0" id="Network" caseDate="2018-01-01T00:30:00.000+01:00" forecastDistance="0" sourceFormat="test">
    <iidm:substation id="Substation1" country="FR">
        <iidm:voltageLevel id="VoltageLevel1" nominalV="400.0" topologyKind="BUS_BREAKER">
            <iidm:busBreakerTopology>
                <iidm:bus id="Bus1"/>
            </iidm:busBreakerTopology>
        </iidm:voltageLevel>
    </iidm:substation>
    <iidm:substation id="Substation2" country="FR">
        <iidm:voltageLevel id="VoltageLevel2" nominalV="400.0" topologyKind="BUS_BREAKER">
            <iidm:busBreakerTopology>
                <iidm:bus id="Bus2"/>
            </iidm:busBreakerTopology>
        </iidm:voltageLevel>
    </iidm:substation>
    <iidm:line id="Line" r="3.0" x="33.0" g1="0.0" b1="1.93E-4" g2="0.0" b2="1.93E-4" bus1="Bus1" connectableBus1="Bus1" voltageLevelId1="VoltageLevel1" bus2="Bus2" connectableBus2="Bus2" voltageLevelId2="VoltageLevel2"/>
    <iidm:extension id="Substation1">
        <sp:substation-position>
            <sp:coordinate longitude="0.5492960214614868" latitude="51.380348205566406"/>
        </sp:substation-position>
    </iidm:extension>
    <iidm:extension id="Line">
        <lp:line-position>
            <lp:coordinate longitude="0.5492960214614868" latitude="51.380348205566406"/>
            <lp:coordinate longitude="0.5132722854614258" latitude="51.529258728027344"/>
            <lp:coordinate longitude="0.4120868146419525" latitude="51.944923400878906"/>
            <lp:coordinate longitude="0.30759671330451965" latitude="52.00010299682617"/>
        </lp:line-position>
    </iidm:extension>
    <iidm:extension id="Substation2">
        <sp:substation-position>
            <sp:coordinate longitude="0.30759671330451965" latitude="52.00010299682617"/>
        </sp:substation-position>
    </iidm:extension>
</iidm:network>
